-------------------------------------------------------
          Amber 22 PMEMD                              2022
          -------------------------------------------------------

  [-O]verwriting output

File Assignments:

 Here is the input file:

Explicit md
 &cntrl
   imin=0, irest=1, ntx=5, ntt=3,
   ntpr=1000, ntwx=1000, nstlim=500000,
   dt=0.002, ntt=3, tempi=300,
   temp0=300, gamma_ln=2.0, ig=-1,
   ntp=1, ntc=2, ntf=2, cut=8.0,
   ntb=2, igb=0, ioutfm=1,
 /

Note: ig = -1. Setting random seed to   410541 based on wallclock time in
      microseconds.

--------------------------------------------------------------------------------
   1.  RESOURCE   USE:
--------------------------------------------------------------------------------

 getting box info from netcdf restart file
 NATOM  =  171090 NTYPES =      19 NBONH =  123114 MBONA  =   48256
 NTHETH =   23174 MTHETA =   14454 NPHIH =   47018 MPHIA  =   46262
 NHPARM =       0 NPARM  =       0 NNB   =  377354 NRES   =   38934
 NBONA  =   48256 NTHETA =   14454 NPHIA =   46262 NUMBND =      80
 NUMANG =     189 NPTRA  =     218 NATYP =      40 NPHB   =       0
 IFBOX  =       2 NMXRS  =      24 IFCAP =       0 NEXTRA =   37646
 NCOPY  =       0

     BOX TYPE: TRUNCATED OCTAHEDRON

--------------------------------------------------------------------------------
   2.  CONTROL  DATA  FOR  THE  RUN
--------------------------------------------------------------------------------

default_name

General flags:
     imin    =       0, nmropt  =       0

Nature and format of input:
     ntx     =       5, irest   =       1, ntrx    =       1

Nature and format of output:
     ntxo    =       2, ntpr    =    1000, ntrx    =       1, ntwr    =  500000
     iwrap   =       0, ntwx    =    1000, ntwv    =       0, ntwe    =       0
     ioutfm  =       1, ntwprt  =       0, idecomp =       0, rbornstat=      0

Potential function:
     ntf     =       2, ntb     =       2, igb     =       0, nsnb    =      25
     ipol    =       0, gbsa    =       0, iesp    =       0
     dielc   =   1.00000, cut     =   8.00000, intdiel =   1.00000

Frozen or restrained atoms:
     ibelly  =       0, ntr     =       0

Molecular dynamics:
     nstlim  =    500000, nscm    =      1000, nrespa  =         1
     t       =   0.00000, dt      =   0.00200, vlimit  =  -1.00000

Langevin dynamics temperature regulation:
     ig      =  410541
     temp0   = 300.00000, tempi   = 300.00000, gamma_ln=   2.00000

Pressure regulation:
     ntp     =       1
     pres0   =   1.00000, comp    =  44.60000, taup    =   1.00000

SHAKE:
     ntc     =       2, jfastw  =       0
     tol     =   0.00001

Extra-points options:
     frameon =       1, chngmask=       1

Ewald parameters:
     verbose =       0, ew_type =       0, nbflag  =       1, use_pme =       1
     vdwmeth =       1, eedmeth =       1, netfrc  =       1
     Box X =  124.380   Box Y =  124.380   Box Z =  124.380
     Alpha =  109.471   Beta  =  109.471   Gamma =  109.471
     NFFT1 =  128       NFFT2 =  128       NFFT3 =  128
     Cutoff=    8.000   Tol   =0.100E-04
     Ewald Coefficient =  0.34864
     Interpolation order =    4

--------------------------------------------------------------------------------
   3.  ATOMIC COORDINATES AND VELOCITIES
--------------------------------------------------------------------------------

default_name
 begin time read from input coords =   200.000 ps

 Number of triangulated 3-point waters found:    37646

     Sum of charges from parm topology file = -13.99979391
     Assuming uniform neutralizing plasma

--------------------------------------------------------------------------------
   4.  RESULTS
 NSTEP =     1000   TIME(PS) =     202.000  TEMP(K) =   300.24  PRESS =  -247.8
 Etot   =   -416563.7974  EKtot   =     82698.7734  EPtot      =   -499262.5708
 BOND   =      4076.2363  ANGLE   =     11185.2092  DIHED      =      7717.6181
 UB     =         0.0000  IMP     =         0.0000  CMAP       =       925.7077
 1-4 NB =      4664.5190  1-4 EEL =     54377.9301  VDWAALS    =     58674.6344
 EELEC  =   -640884.4257  EHBOND  =         0.0000  RESTRAINT  =         0.0000
 EKCMT  =     33795.3554  VIRIAL  =     41243.8272  VOLUME     =   1392236.5160
                                                    Density    =         0.9832
 ------------------------------------------------------------------------------

      A V E R A G E S   O V E R     500 S T E P S

 NSTEP =   500000   TIME(PS) =    1200.000  TEMP(K) =   300.04  PRESS =    -7.5
 Etot   =   -418724.3740  EKtot   =     82644.6355  EPtot      =   -501369.0095
 BOND   =      3993.8660  ANGLE   =     11113.6692  DIHED      =      7613.0555
 UB     =         0.0000  IMP     =         0.0000  CMAP       =       923.7245
 1-4 NB =      4642.6011  1-4 EEL =     54291.1562  VDWAALS    =     54092.4370
 EELEC  =   -638039.5189  EHBOND  =         0.0000  RESTRAINT  =         0.0000
 EKCMT  =     33816.8855  VIRIAL  =     34032.3336  VOLUME     =   1316170.6722
                                                    Density    =         1.0401
 ------------------------------------------------------------------------------

      R M S  F L U C T U A T I O N S

 NSTEP =   500000   TIME(PS) =    1200.000  TEMP(K) =     0.82  PRESS =    90.6
 Etot   =       590.3393  EKtot   =       226.1185  EPtot      =       526.9659
 BOND   =        56.7298  ANGLE   =        79.3496  DIHED      =        51.9022
 UB     =         0.0000  IMP     =         0.0000  CMAP       =        16.7458
 1-4 NB =        29.8595  1-4 EEL =        89.4300  VDWAALS    =       401.4559
 EELEC  =       595.1986  EHBOND  =         0.0000  RESTRAINT  =         0.0000
 EKCMT  =       147.3995  VIRIAL  =      2570.4391  VOLUME     =      4640.7168
                                                    Density    =         0.0035
 ------------------------------------------------------------------------------
