-------------------------------------------------------
          Amber 24 SANDER                              2024
          -------------------------------------------------------

  [-O]verwriting output

File Assignments:

 Here is the input file:

Explicit md
 &cntrl
   imin=0, irest=1, ntx=5, ntt=3,
   ntpr=100, ntwx=1000, nstlim=5000,
   dt=0.002, ntt=3, tempi=300,
   temp0=300, gamma_ln=2.0, ig=-1,
   ntp=1, ntc=2, ntf=2, cut=8,
   ntb=2, igb=0, ioutfm=1,
 /

--------------------------------------------------------------------------------
   1.  RESOURCE   USE:
--------------------------------------------------------------------------------

 getting box info from netcdf restart file
 NATOM  =   25105 NTYPES =       9 NBONH =   18770 MBONA  =    6340
 NTHETH =     240 MTHETA =     175 NPHIH =     600 MPHIA  =     440
 NHPARM =       0 NPARM  =       0 NNB   =   44830 NRES   =    6225
 NBONA  =    6340 NTHETA =     175 NPHIA =     440 NUMBND =       9
 NUMANG =      12 NPTRA  =      16 NATYP =       9 NPHB   =       1
 IFBOX  =       1 NMXRS  =      45 IFCAP =       0 NEXTRA =    6220
 NCOPY  =       0

     BOX TYPE: RECTILINEAR
Note: ig = -1. Setting random seed to   441148 based on wallclock time in microseconds.

--------------------------------------------------------------------------------
   2.  CONTROL  DATA  FOR  THE  RUN
--------------------------------------------------------------------------------

default_name

General flags:
     imin    =       0, nmropt  =       0

Nature and format of input:
     ntx     =       5, irest   =       1, ntrx    =       1

Nature and format of output:
     ntxo    =       2, ntpr    =     100, ntrx    =       1, ntwr    =    5000
     iwrap   =       0, ntwx    =    1000, ntwv    =       0, ntwe    =       0
     ioutfm  =       1, ntwprt  =       0, idecomp =       0, rbornstat=      0

Potential function:
     ntf     =       2, ntb     =       2, igb     =       0, nsnb    =      25
     ipol    =       0, gbsa    =       0, iesp    =       0
     dielc   =   1.00000, cut     =   8.00000, intdiel =   1.00000

Frozen or restrained atoms:
     ibelly  =       0, ntr     =       0

Molecular dynamics:
     nstlim  =      5000, nscm    =      1000, nrespa  =         1
     t       =   0.00000, dt      =   0.00200, vlimit  =  20.00000

Langevin dynamics temperature regulation:
     ig      =  441148
     temp0   = 300.00000, tempi   = 300.00000, gamma_ln=   2.00000

Pressure regulation:
     ntp     =       1
     pres0   =   1.00000, comp    =  44.60000, taup    =   1.00000

SHAKE:
     ntc     =       2, jfastw  =       0
     tol     =   0.00001

Extra-points options:
     frameon =       1, chngmask=       1

Ewald parameters:
     verbose =       0, ew_type =       0, nbflag  =       1, use_pme =       1
     vdwmeth =       1, eedmeth =       1, netfrc  =       1
     Box X =   62.495   Box Y =   56.867   Box Z =   68.271
     Alpha =   90.000   Beta  =   90.000   Gamma =   90.000
     NFFT1 =   64       NFFT2 =   60       NFFT3 =   72
     Cutoff=    8.000   Tol   =0.100E-04
     Ewald Coefficient =  0.34864
     Interpolation order =    4

--------------------------------------------------------------------------------
   3.  ATOMIC COORDINATES AND VELOCITIES
--------------------------------------------------------------------------------

default_name
 begin time read from input coords =     4.000 ps

 Number of triangulated 3-point waters found:     6220

     Sum of charges from parm topology file =   0.01003419
     Assuming uniform neutralizing plasma

--------------------------------------------------------------------------------
   4.  RESULTS
 NSTEP =      100   TIME(PS) =       4.200  TEMP(K) =   109.20  PRESS =   174.9
 Etot   =   -136095.8638  EKtot   =      4110.5651  EPtot      =   -140206.4289
 BOND   =        24.1750  ANGLE   =        61.2508  DIHED      =       194.5932
 1-4 NB =        61.2084  1-4 EEL =      1230.8038  VDWAALS    =     46025.1296
 EELEC  =   -187803.5897  EHBOND  =         0.0000  RESTRAINT  =         0.0000
 EKCMT  =      2040.0203  VIRIAL  =      1123.0549  VOLUME     =    242843.0956
 CMAP   =         0.0000
                                                    Density    =         0.7780
 Ewald error estimate:   0.1792E-03
 ------------------------------------------------------------------------------

      A V E R A G E S   O V E R    5000 S T E P S

 NSTEP =     5000   TIME(PS) =      14.000  TEMP(K) =   287.37  PRESS =  -217.9
 Etot   =   -123843.2060  EKtot   =     10817.2102  EPtot      =   -134660.4163
 BOND   =        44.6093  ANGLE   =       117.5043  DIHED      =       202.7345
 1-4 NB =        66.9788  1-4 EEL =      1236.9810  VDWAALS    =     42544.2874
 EELEC  =   -178873.5116  EHBOND  =         0.0000  RESTRAINT  =         0.0000
 EKCMT  =      5365.6757  VIRIAL  =      6453.2722  VOLUME     =    233231.3055
 CMAP   =         0.0000
                                                    Density    =         0.8108
 Ewald error estimate:   0.3435E-03
 ------------------------------------------------------------------------------

      R M S  F L U C T U A T I O N S

 NSTEP =     5000   TIME(PS) =      14.000  TEMP(K) =    43.23  PRESS =   198.1
 Etot   =      2935.5728  EKtot   =      1627.1626  EPtot      =      1439.1261
 BOND   =         7.4519  ANGLE   =        14.9830  DIHED      =         4.3882
 1-4 NB =         4.0340  1-4 EEL =         8.7054  VDWAALS    =       884.6131
 EELEC  =      2287.8064  EHBOND  =         0.0000  RESTRAINT  =         0.0000
 EKCMT  =       808.0006  VIRIAL  =      1573.0924  VOLUME     =      7267.2058
 CMAP   =         0.0000
                                                    Density    =         0.0253
 Ewald error estimate:   0.7928E-04
 ------------------------------------------------------------------------------
