-------------------------------------------------------
          Amber 22 PMEMD                              2022
          -------------------------------------------------------

  [-O]verwriting output

File Assignments:

 Here is the input file:

Explicit md
 &cntrl
   imin=0, irest=1, ntx=5, ntt=3,
   ntpr=1, ntwx=1000, nstlim=5000,
   dt=0.002, ntt=3, tempi=300,
   temp0=300, gamma_ln=2.0, ig=-1,
   ntp=1, ntc=2, ntf=2, cut=8,
   ntb=2, igb=0, ioutfm=1,
 /

Note: ig = -1. Setting random seed to   387986 based on wallclock time in
      microseconds.

--------------------------------------------------------------------------------
   1.  RESOURCE   USE:
--------------------------------------------------------------------------------

 getting box info from netcdf restart file
 NATOM  =    3557 NTYPES =       9 NBONH =    2656 MBONA  =     902
 NTHETH =      48 MTHETA =      35 NPHIH =     120 MPHIA  =      88
 NHPARM =       0 NPARM  =       0 NNB   =    6404 NRES   =     879
 NBONA  =     902 NTHETA =      35 NPHIA =      88 NUMBND =       9
 NUMANG =      12 NPTRA  =      16 NATYP =       9 NPHB   =       1
 IFBOX  =       1 NMXRS  =      45 IFCAP =       0 NEXTRA =     878
 NCOPY  =       0

     BOX TYPE: RECTILINEAR

--------------------------------------------------------------------------------
   2.  CONTROL  DATA  FOR  THE  RUN
--------------------------------------------------------------------------------

default_name

General flags:
     imin    =       0, nmropt  =       0

Nature and format of input:
     ntx     =       5, irest   =       1, ntrx    =       1

Nature and format of output:
     ntxo    =       2, ntpr    =       1, ntrx    =       1, ntwr    =    5000
     iwrap   =       0, ntwx    =    1000, ntwv    =       0, ntwe    =       0
     ioutfm  =       1, ntwprt  =       0, idecomp =       0, rbornstat=      0

Potential function:
     ntf     =       2, ntb     =       2, igb     =       0, nsnb    =      25
     ipol    =       0, gbsa    =       0, iesp    =       0
     dielc   =   1.00000, cut     =   8.00000, intdiel =   1.00000

Frozen or restrained atoms:
     ibelly  =       0, ntr     =       0

Molecular dynamics:
     nstlim  =      5000, nscm    =      1000, nrespa  =         1
     t       =   0.00000, dt      =   0.00200, vlimit  =  20.00000

Langevin dynamics temperature regulation:
     ig      =  387986
     temp0   = 300.00000, tempi   = 300.00000, gamma_ln=   2.00000

Pressure regulation:
     ntp     =       1
     pres0   =   1.00000, comp    =  44.60000, taup    =   1.00000

SHAKE:
     ntc     =       2, jfastw  =       0
     tol     =   0.00001

Extra-points options:
     frameon =       1, chngmask=       1

Ewald parameters:
     verbose =       0, ew_type =       0, nbflag  =       1, use_pme =       1
     vdwmeth =       1, eedmeth =       1, netfrc  =       1
     Box X =   34.317   Box Y =   35.292   Box Z =   33.337
     Alpha =   90.000   Beta  =   90.000   Gamma =   90.000
     NFFT1 =   36       NFFT2 =   36       NFFT3 =   36
     Cutoff=    8.000   Tol   =0.100E-04
     Ewald Coefficient =  0.34864
     Interpolation order =    4

--------------------------------------------------------------------------------
   3.  ATOMIC COORDINATES AND VELOCITIES
--------------------------------------------------------------------------------

default_name
 begin time read from input coords =     4.000 ps

 Number of triangulated 3-point waters found:      878

     Sum of charges from parm topology file =   0.00200483
     Forcing neutrality...

--------------------------------------------------------------------------------
   4.  RESULTS
 NSTEP =        1   TIME(PS) =       4.002  TEMP(K) =    16.58  PRESS =  -597.6
 Etot   =    -19556.3545  EKtot   =        88.6324  EPtot      =    -19644.9869
 BOND   =         3.0248  ANGLE   =         8.2992  DIHED      =        37.0083
 1-4 NB =        12.1702  1-4 EEL =       241.3004  VDWAALS    =      6472.9227
 EELEC  =    -26419.7125  EHBOND  =         0.0000  RESTRAINT  =         0.0000
 EKCMT  =        42.3702  VIRIAL  =       563.3140  VOLUME     =     40374.9553
                                                    Density    =         0.6647
 Ewald error estimate:   0.3894E-03
 ------------------------------------------------------------------------------

      A V E R A G E S   O V E R    5000 S T E P S

 NSTEP =     5000   TIME(PS) =      14.000  TEMP(K) =   289.32  PRESS =  -935.9
 Etot   =    -17023.7055  EKtot   =      1546.8381  EPtot      =    -18570.5436
 BOND   =         9.2140  ANGLE   =        23.5493  DIHED      =        39.2865
 1-4 NB =        13.9055  1-4 EEL =       247.1351  VDWAALS    =      5785.1032
 EELEC  =    -24688.7371  EHBOND  =         0.0000  RESTRAINT  =         0.0000
 EKCMT  =       763.9349  VIRIAL  =      1430.7988  VOLUME     =     33855.0819
                                                    Density    =         0.8071
 Ewald error estimate:   0.2830E-03
 ------------------------------------------------------------------------------

      R M S  F L U C T U A T I O N S

 NSTEP =     5000   TIME(PS) =      14.000  TEMP(K) =    44.51  PRESS =   529.7
 Etot   =       461.0494  EKtot   =       237.9487  EPtot      =       334.2024
 BOND   =         2.7801  ANGLE   =         4.3765  DIHED      =         1.4365
 1-4 NB =         1.8744  1-4 EEL =         4.1719  VDWAALS    =       158.4191
 EELEC  =       465.8895  EHBOND  =         0.0000  RESTRAINT  =         0.0000
 EKCMT  =       120.1856  VIRIAL  =       414.9893  VOLUME     =      4460.4715
                                                    Density    =         0.1105
 Ewald error estimate:   0.1742E-03
 ------------------------------------------------------------------------------
